# b3lyp/6-311++g(d,p) output=wfn

Single Point Energy

-1 1
 C                 -1.54032000    0.00004600   -0.00039700
 H                 -1.20799000   -0.87433300   -0.54583400
 H                 -1.20807500    0.90955900   -0.48504200
 H                 -1.20772400   -0.03503100    1.02946700
 Br                 1.78431500    0.00000000    0.00010700
 Cl                -3.39385400   -0.00002100   -0.00006400

frame.wfn
