# b3lyp/6-311++g(d,p) output=wfn

Single Point Energy

-1 1
 C                 -1.56174600    0.00024000   -0.00077000
 H                 -1.22867600   -0.87389800   -0.54642400
 H                 -1.22899000    0.90984600   -0.48521000
 H                 -1.22821100   -0.03504600    1.02893400
 Br                 1.79744900   -0.00002300    0.00020100
 Cl                -3.41435300   -0.00005700   -0.00011300

frame.wfn
