# b3lyp/6-311++g(d,p) output=wfn

Single Point Energy

-1 1
 C                 -0.46277000   -0.00007500    0.00022700
 H                 -0.75972300   -0.88133200   -0.54865500
 H                 -0.75980200    0.91590100   -0.48847000
 H                 -0.75957900   -0.03483100    1.03790400
 Br                 1.58767800    0.00000000   -0.00000200
 Cl                -3.35861000    0.00003200   -0.00009600

frame.wfn
