# b3lyp/6-311++g(d,p) output=wfn

Single Point Energy

-1 1
 C                 -0.50480400   -0.00006700    0.00021900
 H                 -0.78254200   -0.88509100   -0.55108600
 H                 -0.78260500    0.91989400   -0.49053200
 H                 -0.78241000   -0.03503600    1.04236400
 Br                 1.58676900    0.00000100   -0.00000600
 Cl                -3.34016100    0.00002700   -0.00008300

frame.wfn
