# b3lyp/6-311++g(d,p) output=wfn

Single Point Energy

-1 1
 C                 -0.75356500   -0.00005700    0.00020900
 H                 -0.86767000   -0.90616900   -0.56447400
 H                 -0.86767700    0.94204300   -0.50213100
 H                 -0.86761500   -0.03605800    1.06727900
 Br                 1.60753400    0.00000500   -0.00001600
 Cl                -3.29429800    0.00001500   -0.00005500

frame.wfn
