# b3lyp/6-311++g(d,p) output=wfn

Single Point Energy

-1 1
 C                 -1.34607400   -0.00006400    0.00011700
 H                 -1.02602800   -0.87641100   -0.54594700
 H                 -1.02596000    0.91100400   -0.48576500
 H                 -1.02608900   -0.03481900    1.03210500
 Br                 1.66627900    0.00001100   -0.00001400
 Cl                -3.20985500    0.00000400   -0.00002100

frame.wfn
