# b3lyp/6-311++g(d,p) output=wfn

Single Point Energy

-1 1
 C                 -1.15788000   -0.00006400    0.00017900
 H                 -0.93687200   -0.89462200   -0.55720500
 H                 -0.93682100    0.92993100   -0.49579700
 H                 -0.93695300   -0.03552300    1.05360100
 Br                 1.63931700    0.00001000   -0.00001800
 Cl                -3.22129400    0.00000600   -0.00003800

frame.wfn
