# b3lyp/6-311++g(d,p) output=wfn

Single Point Energy

-1 1
 C                 -1.20763500   -0.00006500    0.00017200
 H                 -0.95423800   -0.88952600   -0.55401600
 H                 -0.95416900    0.92460900   -0.49298400
 H                 -0.95431300   -0.03530900    1.04758200
 Br                 1.64339400    0.00001000   -0.00001800
 Cl                -3.21192100    0.00000600   -0.00003500

frame.wfn
