# b3lyp/6-311++g(d,p) output=wfn

Single Point Energy

-1 1
 C                 -1.10796700   -0.00006200    0.00018500
 H                 -0.92251300   -0.89934700   -0.56016900
 H                 -0.92247800    0.93487100   -0.49840200
 H                 -0.92259600   -0.03572800    1.05918300
 Br                 1.63552200    0.00000900   -0.00001800
 Cl                -3.23109900    0.00000800   -0.00004100

frame.wfn
