# b3lyp/6-311++g(d,p) output=wfn

Single Point Energy

-1 1
 C                 -1.25732900   -0.00006700    0.00016300
 H                 -0.97493400   -0.88429100   -0.55075100
 H                 -0.97485000    0.91914800   -0.49009400
 H                 -0.97500500   -0.03509700    1.04140000
 Br                 1.64818200    0.00001100   -0.00001800
 Cl                -3.20388400    0.00000500   -0.00003100

frame.wfn
