# b3lyp/6-311++g(d,p) output=wfn

Single Point Energy

-1 1
 C                 -1.05782800   -0.00006100    0.00018900
 H                 -0.91093700   -0.90348700   -0.56277300
 H                 -0.91091100    0.93920300   -0.50068100
 H                 -0.91101200   -0.03591600    1.06407500
 Br                 1.63180900    0.00000800   -0.00001800
 Cl                -3.24092600    0.00000900   -0.00004300

frame.wfn
