# b3lyp/6-311++g(d,p) output=wfn

Single Point Energy

-1 1
 C                 -1.51889900   -0.00006800   -0.00009000
 H                 -1.18737800   -0.87463200   -0.54541700
 H                 -1.18731300    0.90944000   -0.48485100
 H                 -1.18732200   -0.03503900    1.02994700
 Br                 1.77118200    0.00001300    0.00003900
 Cl                -3.37334600    0.00000100   -0.00004800

frame.wfn
