# b3lyp/6-311++g(d,p) output=wfn

Single Point Energy

-1 1
 C                 -0.90605000   -0.00005200    0.00020200
 H                 -0.88894700   -0.91019700   -0.56707600
 H                 -0.88893700    0.94631400   -0.50433500
 H                 -0.88895600   -0.03627700    1.07205700
 Br                 1.62022600    0.00000500   -0.00001900
 Cl                -3.26877300    0.00001200   -0.00004500

frame.wfn
