# b3lyp/6-311++g(d,p) output=wfn

Single Point Energy

-1 1
 C                 -0.39811000    0.00000500   -0.00017800
 H                 -0.70948900   -0.87904800   -0.54720000
 H                 -0.70948700    0.91322800   -0.48802300
 H                 -0.70967400   -0.03415400    1.03456100
 Br                 1.63552800   -0.00001200    0.00005600
 Cl                -3.49312500    0.00002500   -0.00004500

frame.wfn
