# b3lyp/6-311++g(d,p) output=wfn

Single Point Energy

-1 1
 C                 -1.30649900   -0.00006800    0.00014800
 H                 -0.99963100   -0.87934200   -0.54768900
 H                 -0.99954100    0.91400100   -0.48736600
 H                 -0.99969800   -0.03490700    1.03555900
 Br                 1.65489700    0.00001100   -0.00001700
 Cl                -3.20003000    0.00000500   -0.00002600

frame.wfn
