# b3lyp/6-311++g(d,p) output=wfn

Single Point Energy

-1 1
 C                 -0.80432400   -0.00005200    0.00020800
 H                 -0.87632800   -0.90866000   -0.56611000
 H                 -0.87633100    0.94471500   -0.50347500
 H                 -0.87628400   -0.03621700    1.07025600
 Br                 1.61188400    0.00000400   -0.00001900
 Cl                -3.28594700    0.00001300   -0.00004900

frame.wfn
