# b3lyp/6-311++g(d,p) output=wfn

Single Point Energy

-1 1
 C                 -0.43210700   -0.00008400    0.00022300
 H                 -0.73753300   -0.87982400   -0.54754700
 H                 -0.73761300    0.91416300   -0.48772700
 H                 -0.73738400   -0.03462800    1.03603000
 Br                 1.60582200   -0.00000100    0.00001000
 Cl                -3.41199900    0.00004000   -0.00012000

frame.wfn
