# b3lyp/6-311++g(d,p) output=wfn

Single Point Energy

-1 1
 C                 -0.95684200   -0.00005900    0.00019700
 H                 -0.89484900   -0.90912500   -0.56635300
 H                 -0.89483300    0.94513300   -0.50377000
 H                 -0.89489300   -0.03619500    1.07075400
 Br                 1.62424400    0.00000600   -0.00001800
 Cl                -3.25989900    0.00001100   -0.00004600

frame.wfn
