# b3lyp/6-311++g(d,p) output=wfn

Single Point Energy

-1 1
 C                 -0.70293000   -0.00005900    0.00021000
 H                 -0.85655900   -0.90277600   -0.56231100
 H                 -0.85656900    0.93847100   -0.50026900
 H                 -0.85648300   -0.03588500    1.06326400
 Br                 1.60299800    0.00000400   -0.00001400
 Cl                -3.30239700    0.00001700   -0.00006000

frame.wfn
