# b3lyp/6-311++g(d,p) output=wfn

Single Point Energy

-1 1
 C                 -1.41193200   -0.00002000    0.00006600
 H                 -1.08605900   -0.87535400   -0.54554700
 H                 -1.08605600    0.91017600   -0.48516100
 H                 -1.08615100   -0.03488600    1.03096400
 Br                 1.70551500    0.00000600   -0.00000400
 Cl                -3.27060800   -0.00000400   -0.00002000

frame.wfn
