# b3lyp/6-311++g(d,p) output=wfn

Single Point Energy

-1 1
 C                 -0.44359900   -0.00008300    0.00023400
 H                 -0.74651100   -0.88016600   -0.54782800
 H                 -0.74659400    0.91459200   -0.48785900
 H                 -0.74635600   -0.03471400    1.03648700
 Br                 1.59601500    0.00000000    0.00000400
 Cl                -3.38514700    0.00003700   -0.00011200

frame.wfn
