# b3lyp/6-311++g(d,p) output=wfn

Single Point Energy

-1 1
 C                 -1.43329900   -0.00002700    0.00010000
 H                 -1.10606000   -0.87518400   -0.54540900
 H                 -1.10603200    0.90999000   -0.48500900
 H                 -1.10618500   -0.03490500    1.03080400
 Br                 1.71864800    0.00000700   -0.00000900
 Cl                -3.29118600   -0.00000400   -0.00002400

frame.wfn
